*SPEF "IEEE 1481-1999"
*DESIGN "HW4"
*DATE "Mon Dec 14 02:07:32 2020"
*VENDOR "SYNOPSYS INC"
*PROGRAM "Synopsys Design Compiler cmos"
*VERSION "N-2017.09-SP2"
*DESIGN_FLOW "SYNTHESIS"
*DIVIDER /
*DELIMITER :
*BUS_DELIMITER []
*T_UNIT 1.0 NS
*C_UNIT 1.0 PF
*R_UNIT 1.0 KOHM
*L_UNIT 1.0 HENRY

*PORTS

clk I *L 0.000e+00 *S 0.000e+00 0.000e+00 
rst_n I *L 0.000e+00 *S 7.932e-02 7.932e-02 
mem_addr_I\[31\] O *L 1.000e+00 *S 3.972e-01 2.599e-01 
mem_addr_I\[30\] O *L 1.000e+00 *S 3.972e-01 2.599e-01 
mem_addr_I\[29\] O *L 1.000e+00 *S 3.972e-01 2.599e-01 
mem_addr_I\[28\] O *L 1.000e+00 *S 3.972e-01 2.599e-01 
mem_addr_I\[27\] O *L 1.000e+00 *S 3.972e-01 2.599e-01 
mem_addr_I\[26\] O *L 1.000e+00 *S 3.972e-01 2.599e-01 
mem_addr_I\[25\] O *L 1.000e+00 *S 3.972e-01 2.599e-01 
mem_addr_I\[24\] O *L 1.000e+00 *S 3.972e-01 2.599e-01 
mem_addr_I\[23\] O *L 1.000e+00 *S 3.972e-01 2.599e-01 
mem_addr_I\[22\] O *L 1.000e+00 *S 3.972e-01 2.599e-01 
mem_addr_I\[21\] O *L 1.000e+00 *S 3.972e-01 2.599e-01 
mem_addr_I\[20\] O *L 1.000e+00 *S 3.972e-01 2.599e-01 
mem_addr_I\[19\] O *L 1.000e+00 *S 3.972e-01 2.599e-01 
mem_addr_I\[18\] O *L 1.000e+00 *S 3.972e-01 2.599e-01 
mem_addr_I\[17\] O *L 1.000e+00 *S 3.972e-01 2.599e-01 
mem_addr_I\[16\] O *L 1.000e+00 *S 3.972e-01 2.599e-01 
mem_addr_I\[15\] O *L 1.000e+00 *S 3.972e-01 2.599e-01 
mem_addr_I\[14\] O *L 1.000e+00 *S 3.972e-01 2.599e-01 
mem_addr_I\[13\] O *L 1.000e+00 *S 3.972e-01 2.599e-01 
mem_addr_I\[12\] O *L 1.000e+00 *S 3.972e-01 2.599e-01 
mem_addr_I\[11\] O *L 1.000e+00 *S 3.850e-01 2.470e-01 
mem_addr_I\[10\] O *L 1.000e+00 *S 3.850e-01 2.470e-01 
mem_addr_I\[9\] O *L 1.000e+00 *S 3.850e-01 2.470e-01 
mem_addr_I\[8\] O *L 1.000e+00 *S 3.850e-01 2.470e-01 
mem_addr_I\[7\] O *L 1.000e+00 *S 3.850e-01 2.470e-01 
mem_addr_I\[6\] O *L 1.000e+00 *S 3.850e-01 2.470e-01 
mem_addr_I\[5\] O *L 1.000e+00 *S 3.972e-01 2.599e-01 
mem_addr_I\[4\] O *L 1.000e+00 *S 3.850e-01 2.470e-01 
mem_addr_I\[3\] O *L 1.000e+00 *S 3.972e-01 2.599e-01 
mem_addr_I\[2\] O *L 1.000e+00 *S 3.972e-01 2.599e-01 
mem_rdata_I\[31\] I *L 0.000e+00 *S 5.121e-02 5.121e-02 
mem_rdata_I\[30\] I *L 0.000e+00 *S 6.371e-02 6.371e-02 
mem_rdata_I\[29\] I *L 0.000e+00 *S 1.128e-02 1.128e-02 
mem_rdata_I\[28\] I *L 0.000e+00 *S 1.128e-02 1.128e-02 
mem_rdata_I\[27\] I *L 0.000e+00 *S 1.128e-02 1.128e-02 
mem_rdata_I\[26\] I *L 0.000e+00 *S 1.128e-02 1.128e-02 
mem_rdata_I\[25\] I *L 0.000e+00 *S 1.128e-02 1.128e-02 
mem_rdata_I\[24\] I *L 0.000e+00 *S 1.172e-02 1.172e-02 
mem_rdata_I\[23\] I *L 0.000e+00 *S 1.172e-02 1.172e-02 
mem_rdata_I\[22\] I *L 0.000e+00 *S 1.172e-02 1.172e-02 
mem_rdata_I\[21\] I *L 0.000e+00 *S 1.172e-02 1.172e-02 
mem_rdata_I\[20\] I *L 0.000e+00 *S 2.394e-02 2.394e-02 
mem_rdata_I\[19\] I *L 0.000e+00 *S 1.141e-02 1.141e-02 
mem_rdata_I\[18\] I *L 0.000e+00 *S 1.141e-02 1.141e-02 
mem_rdata_I\[17\] I *L 0.000e+00 *S 1.141e-02 1.141e-02 
mem_rdata_I\[16\] I *L 0.000e+00 *S 1.141e-02 1.141e-02 
mem_rdata_I\[15\] I *L 0.000e+00 *S 1.141e-02 1.141e-02 
mem_rdata_I\[14\] I *L 0.000e+00 *S 1.229e-02 1.229e-02 
mem_rdata_I\[13\] I *L 0.000e+00 *S 6.359e-02 6.359e-02 
mem_rdata_I\[12\] I *L 0.000e+00 *S 5.434e-02 5.434e-02 
mem_rdata_I\[11\] I *L 0.000e+00 *S 1.141e-02 1.141e-02 
mem_rdata_I\[10\] I *L 0.000e+00 *S 1.141e-02 1.141e-02 
mem_rdata_I\[9\] I *L 0.000e+00 *S 1.141e-02 1.141e-02 
mem_rdata_I\[8\] I *L 0.000e+00 *S 1.141e-02 1.141e-02 
mem_rdata_I\[7\] I *L 0.000e+00 *S 2.345e-02 2.345e-02 
mem_rdata_I\[6\] I *L 0.000e+00 *S 2.768e-02 2.768e-02 
mem_rdata_I\[5\] I *L 0.000e+00 *S 4.131e-02 4.131e-02 
mem_rdata_I\[4\] I *L 0.000e+00 *S 5.992e-02 5.992e-02 
mem_rdata_I\[3\] I *L 0.000e+00 *S 2.567e-02 2.567e-02 
mem_rdata_I\[2\] I *L 0.000e+00 *S 2.425e-02 2.425e-02 
mem_rdata_I\[1\] I *L 0.000e+00 *S 0.000e+00 0.000e+00 
mem_rdata_I\[0\] I *L 0.000e+00 *S 0.000e+00 0.000e+00 
ctrl_signal\[11\] O *L 1.000e+00 *S 3.972e-01 2.599e-01 
ctrl_signal\[10\] O *L 1.000e+00 *S 3.972e-01 2.599e-01 
ctrl_signal\[9\] O *L 1.000e+00 *S 3.972e-01 2.599e-01 
ctrl_signal\[8\] O *L 1.000e+00 *S 3.972e-01 2.599e-01 
ctrl_signal\[7\] O *L 1.000e+00 *S 3.972e-01 2.599e-01 
ctrl_signal\[6\] O *L 1.000e+00 *S 3.972e-01 2.599e-01 
ctrl_signal\[5\] O *L 1.000e+00 *S 3.972e-01 2.599e-01 
ctrl_signal\[4\] O *L 1.000e+00 *S 3.972e-01 2.599e-01 
ctrl_signal\[3\] O *L 1.000e+00 *S 3.972e-01 2.599e-01 
ctrl_signal\[2\] O *L 1.000e+00 *S 3.972e-01 2.599e-01 
ctrl_signal\[1\] O *L 1.000e+00 *S 3.972e-01 2.599e-01 
ctrl_signal\[0\] O *L 1.000e+00 *S 3.972e-01 2.599e-01 
immediate\[31\] O *L 1.000e+00 *S 3.972e-01 2.599e-01 
immediate\[30\] O *L 1.000e+00 *S 3.972e-01 2.599e-01 
immediate\[29\] O *L 1.000e+00 *S 3.972e-01 2.599e-01 
immediate\[28\] O *L 1.000e+00 *S 3.972e-01 2.599e-01 
immediate\[27\] O *L 1.000e+00 *S 3.972e-01 2.599e-01 
immediate\[26\] O *L 1.000e+00 *S 3.972e-01 2.599e-01 
immediate\[25\] O *L 1.000e+00 *S 3.972e-01 2.599e-01 
immediate\[24\] O *L 1.000e+00 *S 3.972e-01 2.599e-01 
immediate\[23\] O *L 1.000e+00 *S 3.972e-01 2.599e-01 
immediate\[22\] O *L 1.000e+00 *S 3.972e-01 2.599e-01 
immediate\[21\] O *L 1.000e+00 *S 3.972e-01 2.599e-01 
immediate\[20\] O *L 1.000e+00 *S 3.972e-01 2.599e-01 
immediate\[19\] O *L 1.000e+00 *S 3.972e-01 2.599e-01 
immediate\[18\] O *L 1.000e+00 *S 3.972e-01 2.599e-01 
immediate\[17\] O *L 1.000e+00 *S 3.972e-01 2.599e-01 
immediate\[16\] O *L 1.000e+00 *S 3.972e-01 2.599e-01 
immediate\[15\] O *L 1.000e+00 *S 3.972e-01 2.599e-01 
immediate\[14\] O *L 1.000e+00 *S 3.972e-01 2.599e-01 
immediate\[13\] O *L 1.000e+00 *S 3.972e-01 2.599e-01 
immediate\[12\] O *L 1.000e+00 *S 3.972e-01 2.599e-01 
immediate\[11\] O *L 1.000e+00 *S 3.972e-01 2.599e-01 
immediate\[10\] O *L 1.000e+00 *S 3.972e-01 2.599e-01 
immediate\[9\] O *L 1.000e+00 *S 3.972e-01 2.599e-01 
immediate\[8\] O *L 1.000e+00 *S 3.972e-01 2.599e-01 
immediate\[7\] O *L 1.000e+00 *S 3.972e-01 2.599e-01 
immediate\[6\] O *L 1.000e+00 *S 3.972e-01 2.599e-01 
immediate\[5\] O *L 1.000e+00 *S 3.972e-01 2.599e-01 
immediate\[4\] O *L 1.000e+00 *S 3.972e-01 2.599e-01 
immediate\[3\] O *L 1.000e+00 *S 3.972e-01 2.599e-01 
immediate\[2\] O *L 1.000e+00 *S 3.972e-01 2.599e-01 
immediate\[1\] O *L 1.000e+00 *S 3.972e-01 2.599e-01 
immediate\[0\] O *L 1.000e+00 *S 3.972e-01 2.599e-01 
Port7 I *L 0.000e+00 *S 0.000e+00 0.000e+00 

*R_NET rst_n 7.932e-02
*DRIVER rst_n
*CELL NULL
*C2_R1_C1 3.966e-02 3.400e-05 3.966e-02 
*LOADS
*RC mem_addr_I_reg_30_:RN 8.207e-08
*RC mem_addr_I_reg_31_:RN 8.876e-08
*RC U225:A 6.966e-08
*RC U226:A 6.966e-08
*RC U253:A 6.966e-08
*RC U228:A 6.966e-08
*END

*R_NET n236 1.587e-02
*DRIVER mem_addr_I_reg_31_:Q
*CELL DFFRX2
*C2_R1_C1 7.933e-03 5.667e-06 7.933e-03 
*LOADS
*RC add_46/U1:B 8.991e-08
*END

*R_NET n237 2.434e-02
*DRIVER mem_addr_I_reg_30_:Q
*CELL DFFRX1
*C2_R1_C1 1.217e-02 5.667e-06 1.217e-02 
*LOADS
*RC add_46/U1_1_28:A 1.379e-07
*END

*R_NET n238 2.434e-02
*DRIVER mem_addr_I_reg_29_:Q
*CELL DFFRX1
*C2_R1_C1 1.217e-02 5.667e-06 1.217e-02 
*LOADS
*RC add_46/U1_1_27:A 1.379e-07
*END

*R_NET n239 2.450e-02
*DRIVER mem_addr_I_reg_28_:Q
*CELL DFFRX1
*C2_R1_C1 1.225e-02 5.667e-06 1.225e-02 
*LOADS
*RC add_46/U1_1_26:A 1.388e-07
*END

*R_NET n240 2.450e-02
*DRIVER mem_addr_I_reg_27_:Q
*CELL DFFRX1
*C2_R1_C1 1.225e-02 5.667e-06 1.225e-02 
*LOADS
*RC add_46/U1_1_25:A 1.388e-07
*END

*R_NET n241 1.730e-02
*DRIVER mem_addr_I_reg_26_:Q
*CELL DFFRX1
*C2_R1_C1 8.649e-03 5.667e-06 8.649e-03 
*LOADS
*RC add_46/U1_1_24:A 9.802e-08
*END

*R_NET n242 1.251e-02
*DRIVER mem_addr_I_reg_25_:Q
*CELL DFFRX1
*C2_R1_C1 6.253e-03 5.667e-06 6.253e-03 
*LOADS
*RC add_46/U1_1_23:A 7.087e-08
*END

*R_NET n243 1.251e-02
*DRIVER mem_addr_I_reg_24_:Q
*CELL DFFRX1
*C2_R1_C1 6.253e-03 5.667e-06 6.253e-03 
*LOADS
*RC add_46/U1_1_22:A 7.087e-08
*END

*R_NET n244 1.251e-02
*DRIVER mem_addr_I_reg_23_:Q
*CELL DFFRX1
*C2_R1_C1 6.253e-03 5.667e-06 6.253e-03 
*LOADS
*RC add_46/U1_1_21:A 7.087e-08
*END

*R_NET n245 1.251e-02
*DRIVER mem_addr_I_reg_22_:Q
*CELL DFFRX1
*C2_R1_C1 6.253e-03 5.667e-06 6.253e-03 
*LOADS
*RC add_46/U1_1_20:A 7.087e-08
*END

*R_NET n246 1.251e-02
*DRIVER mem_addr_I_reg_21_:Q
*CELL DFFRX1
*C2_R1_C1 6.253e-03 5.667e-06 6.253e-03 
*LOADS
*RC add_46/U1_1_19:A 7.087e-08
*END

*R_NET n247 1.251e-02
*DRIVER mem_addr_I_reg_20_:Q
*CELL DFFRX1
*C2_R1_C1 6.253e-03 5.667e-06 6.253e-03 
*LOADS
*RC add_46/U1_1_18:A 7.087e-08
*END

*R_NET n248 1.251e-02
*DRIVER mem_addr_I_reg_19_:Q
*CELL DFFRX1
*C2_R1_C1 6.253e-03 5.667e-06 6.253e-03 
*LOADS
*RC add_46/U1_1_17:A 7.087e-08
*END

*R_NET n249 1.251e-02
*DRIVER mem_addr_I_reg_18_:Q
*CELL DFFRX1
*C2_R1_C1 6.253e-03 5.667e-06 6.253e-03 
*LOADS
*RC add_46/U1_1_16:A 7.087e-08
*END

*R_NET n250 1.251e-02
*DRIVER mem_addr_I_reg_17_:Q
*CELL DFFRX1
*C2_R1_C1 6.253e-03 5.667e-06 6.253e-03 
*LOADS
*RC add_46/U1_1_15:A 7.087e-08
*END

*R_NET n251 1.251e-02
*DRIVER mem_addr_I_reg_16_:Q
*CELL DFFRX1
*C2_R1_C1 6.253e-03 5.667e-06 6.253e-03 
*LOADS
*RC add_46/U1_1_14:A 7.087e-08
*END

*R_NET n252 2.434e-02
*DRIVER mem_addr_I_reg_15_:Q
*CELL DFFRX1
*C2_R1_C1 1.217e-02 5.667e-06 1.217e-02 
*LOADS
*RC add_46/U1_1_13:A 1.379e-07
*END

*R_NET n253 3.673e-02
*DRIVER mem_addr_I_reg_14_:Q
*CELL DFFRX1
*C2_R1_C1 1.836e-02 5.667e-06 1.836e-02 
*LOADS
*RC add_46/U1_1_12:A 2.081e-07
*END

*R_NET n254 2.434e-02
*DRIVER mem_addr_I_reg_13_:Q
*CELL DFFRX1
*C2_R1_C1 1.217e-02 5.667e-06 1.217e-02 
*LOADS
*RC add_46/U1_1_11:A 1.379e-07
*END

*R_NET n255 3.673e-02
*DRIVER mem_addr_I_reg_12_:Q
*CELL DFFRX1
*C2_R1_C1 1.836e-02 5.667e-06 1.836e-02 
*LOADS
*RC add_46/U1_1_10:A 2.081e-07
*END

*R_NET n256 4.385e-02
*DRIVER mem_addr_I_reg_11_:Q
*CELL DFFRX1
*C2_R1_C1 2.192e-02 1.133e-05 2.192e-02 
*LOADS
*RC U175:A 1.105e-07
*RC add_46/U1_1_9:A 1.379e-07
*END

*R_NET n257 5.623e-02
*DRIVER mem_addr_I_reg_10_:Q
*CELL DFFRX1
*C2_R1_C1 2.812e-02 1.133e-05 2.812e-02 
*LOADS
*RC U176:A 1.105e-07
*RC add_46/U1_1_8:A 2.081e-07
*END

*R_NET n258 4.385e-02
*DRIVER mem_addr_I_reg_9_:Q
*CELL DFFRX1
*C2_R1_C1 2.192e-02 1.133e-05 2.192e-02 
*LOADS
*RC U177:A 1.105e-07
*RC add_46/U1_1_7:A 1.379e-07
*END

*R_NET n259 5.623e-02
*DRIVER mem_addr_I_reg_8_:Q
*CELL DFFRX1
*C2_R1_C1 2.812e-02 1.133e-05 2.812e-02 
*LOADS
*RC U178:A 1.105e-07
*RC add_46/U1_1_6:A 2.081e-07
*END

*R_NET n260 4.385e-02
*DRIVER mem_addr_I_reg_7_:Q
*CELL DFFRX1
*C2_R1_C1 2.192e-02 1.133e-05 2.192e-02 
*LOADS
*RC U179:A 1.105e-07
*RC add_46/U1_1_5:A 1.379e-07
*END

*R_NET n261 5.623e-02
*DRIVER mem_addr_I_reg_6_:Q
*CELL DFFRX1
*C2_R1_C1 2.812e-02 1.133e-05 2.812e-02 
*LOADS
*RC U180:A 1.105e-07
*RC add_46/U1_1_4:A 2.081e-07
*END

*R_NET n262 2.434e-02
*DRIVER mem_addr_I_reg_5_:Q
*CELL DFFRX1
*C2_R1_C1 1.217e-02 5.667e-06 1.217e-02 
*LOADS
*RC add_46/U1_1_3:A 1.379e-07
*END

*R_NET n263 4.385e-02
*DRIVER mem_addr_I_reg_4_:Q
*CELL DFFRX2
*C2_R1_C1 2.192e-02 1.133e-05 2.192e-02 
*LOADS
*RC U183:A 1.105e-07
*RC add_46/U1_1_2:A 1.379e-07
*END

*R_NET n264 1.730e-02
*DRIVER mem_addr_I_reg_3_:Q
*CELL DFFRX2
*C2_R1_C1 8.649e-03 5.667e-06 8.649e-03 
*LOADS
*RC add_46/U1_1_1:A 9.802e-08
*END

*R_NET n265 2.725e-02
*DRIVER mem_addr_I_reg_2_:Q
*CELL DFFRX4
*C2_R1_C1 1.362e-02 1.133e-05 1.362e-02 
*LOADS
*RC add_46/U1_1_1:B 8.847e-08
*RC add_46/U2:A 6.593e-08
*END

*R_NET mem_rdata_I\[31\] 5.121e-02
*DRIVER mem_rdata_I\[31\]
*CELL NULL
*C2_R1_C1 2.561e-02 2.267e-05 2.561e-02 
*LOADS
*RC U66:B0 7.127e-08
*RC U229:A 8.783e-08
*RC U230:A0 6.569e-08
*RC U246:B0 6.542e-08
*END

*R_NET mem_rdata_I\[30\] 6.371e-02
*DRIVER mem_rdata_I\[30\]
*CELL NULL
*C2_R1_C1 3.186e-02 2.833e-05 3.186e-02 
*LOADS
*RC U243:AN 6.391e-08
*RC decoder/U5:B 7.506e-08
*RC decoder/U33:B 7.506e-08
*RC decoder/U35:B 7.506e-08
*RC decoder/U37:A 7.196e-08
*END

*R_NET mem_rdata_I\[29\] 1.128e-02
*DRIVER mem_rdata_I\[29\]
*CELL NULL
*C2_R1_C1 5.639e-03 5.667e-06 5.639e-03 
*LOADS
*RC U242:AN 6.391e-08
*END

*R_NET mem_rdata_I\[28\] 1.128e-02
*DRIVER mem_rdata_I\[28\]
*CELL NULL
*C2_R1_C1 5.639e-03 5.667e-06 5.639e-03 
*LOADS
*RC U241:AN 6.391e-08
*END

*R_NET mem_rdata_I\[27\] 1.128e-02
*DRIVER mem_rdata_I\[27\]
*CELL NULL
*C2_R1_C1 5.639e-03 5.667e-06 5.639e-03 
*LOADS
*RC U240:AN 6.391e-08
*END

*R_NET mem_rdata_I\[26\] 1.128e-02
*DRIVER mem_rdata_I\[26\]
*CELL NULL
*C2_R1_C1 5.639e-03 5.667e-06 5.639e-03 
*LOADS
*RC U239:AN 6.391e-08
*END

*R_NET mem_rdata_I\[25\] 1.128e-02
*DRIVER mem_rdata_I\[25\]
*CELL NULL
*C2_R1_C1 5.639e-03 5.667e-06 5.639e-03 
*LOADS
*RC U238:AN 6.391e-08
*END

*R_NET mem_rdata_I\[24\] 1.172e-02
*DRIVER mem_rdata_I\[24\]
*CELL NULL
*C2_R1_C1 5.858e-03 5.667e-06 5.858e-03 
*LOADS
*RC U252:A0 6.639e-08
*END

*R_NET mem_rdata_I\[23\] 1.172e-02
*DRIVER mem_rdata_I\[23\]
*CELL NULL
*C2_R1_C1 5.858e-03 5.667e-06 5.858e-03 
*LOADS
*RC U251:A0 6.639e-08
*END

*R_NET mem_rdata_I\[22\] 1.172e-02
*DRIVER mem_rdata_I\[22\]
*CELL NULL
*C2_R1_C1 5.858e-03 5.667e-06 5.858e-03 
*LOADS
*RC U250:A0 6.639e-08
*END

*R_NET mem_rdata_I\[21\] 1.172e-02
*DRIVER mem_rdata_I\[21\]
*CELL NULL
*C2_R1_C1 5.858e-03 5.667e-06 5.858e-03 
*LOADS
*RC U249:A0 6.639e-08
*END

*R_NET mem_rdata_I\[20\] 2.394e-02
*DRIVER mem_rdata_I\[20\]
*CELL NULL
*C2_R1_C1 1.197e-02 1.133e-05 1.197e-02 
*LOADS
*RC U245:A1 6.926e-08
*RC U247:A0 6.639e-08
*END

*R_NET mem_rdata_I\[19\] 1.141e-02
*DRIVER mem_rdata_I\[19\]
*CELL NULL
*C2_R1_C1 5.706e-03 5.667e-06 5.706e-03 
*LOADS
*RC U237:A0N 6.467e-08
*END

*R_NET mem_rdata_I\[18\] 1.141e-02
*DRIVER mem_rdata_I\[18\]
*CELL NULL
*C2_R1_C1 5.706e-03 5.667e-06 5.706e-03 
*LOADS
*RC U236:A0N 6.467e-08
*END

*R_NET mem_rdata_I\[17\] 1.141e-02
*DRIVER mem_rdata_I\[17\]
*CELL NULL
*C2_R1_C1 5.706e-03 5.667e-06 5.706e-03 
*LOADS
*RC U235:A0N 6.467e-08
*END

*R_NET mem_rdata_I\[16\] 1.141e-02
*DRIVER mem_rdata_I\[16\]
*CELL NULL
*C2_R1_C1 5.706e-03 5.667e-06 5.706e-03 
*LOADS
*RC U234:A0N 6.467e-08
*END

*R_NET mem_rdata_I\[15\] 1.141e-02
*DRIVER mem_rdata_I\[15\]
*CELL NULL
*C2_R1_C1 5.706e-03 5.667e-06 5.706e-03 
*LOADS
*RC U233:A0N 6.467e-08
*END

*R_NET mem_rdata_I\[14\] 1.229e-02
*DRIVER mem_rdata_I\[14\]
*CELL NULL
*C2_R1_C1 6.147e-03 5.667e-06 6.147e-03 
*LOADS
*RC U248:A 6.966e-08
*END

*R_NET mem_rdata_I\[13\] 6.359e-02
*DRIVER mem_rdata_I\[13\]
*CELL NULL
*C2_R1_C1 3.179e-02 2.833e-05 3.179e-02 
*LOADS
*RC U232:A0N 6.467e-08
*RC decoder/U31:B 7.506e-08
*RC decoder/U32:B 7.506e-08
*RC decoder/U34:B 7.357e-08
*RC decoder/U38:A 7.196e-08
*END

*R_NET mem_rdata_I\[12\] 5.434e-02
*DRIVER mem_rdata_I\[12\]
*CELL NULL
*C2_R1_C1 2.717e-02 2.267e-05 2.717e-02 
*LOADS
*RC U231:A0N 6.467e-08
*RC decoder/U3:A 7.554e-08
*RC decoder/U30:A 9.352e-08
*RC decoder/U39:A 7.419e-08
*END

*R_NET mem_rdata_I\[11\] 1.141e-02
*DRIVER mem_rdata_I\[11\]
*CELL NULL
*C2_R1_C1 5.705e-03 5.667e-06 5.705e-03 
*LOADS
*RC U252:B0 6.466e-08
*END

*R_NET mem_rdata_I\[10\] 1.141e-02
*DRIVER mem_rdata_I\[10\]
*CELL NULL
*C2_R1_C1 5.705e-03 5.667e-06 5.705e-03 
*LOADS
*RC U251:B0 6.466e-08
*END

*R_NET mem_rdata_I\[9\] 1.141e-02
*DRIVER mem_rdata_I\[9\]
*CELL NULL
*C2_R1_C1 5.705e-03 5.667e-06 5.705e-03 
*LOADS
*RC U250:B0 6.466e-08
*END

*R_NET mem_rdata_I\[8\] 1.141e-02
*DRIVER mem_rdata_I\[8\]
*CELL NULL
*C2_R1_C1 5.705e-03 5.667e-06 5.705e-03 
*LOADS
*RC U249:B0 6.466e-08
*END

*R_NET mem_rdata_I\[7\] 2.345e-02
*DRIVER mem_rdata_I\[7\]
*CELL NULL
*C2_R1_C1 1.173e-02 1.133e-05 1.173e-02 
*LOADS
*RC U245:B1 6.859e-08
*RC U247:B1 6.429e-08
*END

*R_NET mem_rdata_I\[6\] 2.768e-02
*DRIVER mem_rdata_I\[6\]
*CELL NULL
*C2_R1_C1 1.384e-02 1.133e-05 1.384e-02 
*LOADS
*RC decoder/U4:AN 6.391e-08
*RC decoder/U27:B 9.295e-08
*END

*R_NET mem_rdata_I\[5\] 4.131e-02
*DRIVER mem_rdata_I\[5\]
*CELL NULL
*C2_R1_C1 2.065e-02 1.700e-05 2.065e-02 
*LOADS
*RC decoder/U26:B 9.005e-08
*RC decoder/U36:B 7.206e-08
*RC decoder/U41:A 7.196e-08
*END

*R_NET mem_rdata_I\[4\] 5.992e-02
*DRIVER mem_rdata_I\[4\]
*CELL NULL
*C2_R1_C1 2.996e-02 2.267e-05 2.996e-02 
*LOADS
*RC decoder/U26:A 8.783e-08
*RC decoder/U27:A 8.973e-08
*RC decoder/U28:A 8.783e-08
*RC decoder/U36:A 7.419e-08
*END

*R_NET mem_rdata_I\[3\] 2.567e-02
*DRIVER mem_rdata_I\[3\]
*CELL NULL
*C2_R1_C1 1.283e-02 1.133e-05 1.283e-02 
*LOADS
*RC decoder/U29:B 7.348e-08
*RC decoder/U40:A 7.196e-08
*END

*R_NET mem_rdata_I\[2\] 2.425e-02
*DRIVER mem_rdata_I\[2\]
*CELL NULL
*C2_R1_C1 1.212e-02 1.133e-05 1.212e-02 
*LOADS
*RC decoder/U4:B 7.348e-08
*RC decoder/U29:AN 6.391e-08
*END

*R_NET instruction_type\[22\] 7.484e-02
*DRIVER decoder/U42:Y
*CELL CLKINVX1
*C2_R1_C1 3.742e-02 3.400e-05 3.742e-02 
*LOADS
*RC U187:B 8.985e-08
*RC U214:A1N 6.331e-08
*RC U231:A1N 6.331e-08
*RC U232:A1N 6.331e-08
*RC U245:A0 6.922e-08
*RC U203:B 7.506e-08
*END

*R_NET instruction_type\[21\] 3.728e-02
*DRIVER decoder/U29:Y
*CELL NOR2BX1
*C2_R1_C1 1.864e-02 1.700e-05 1.864e-02 
*LOADS
*RC decoder/U12:C 6.771e-08
*RC U207:AN 6.728e-08
*RC U216:D 7.626e-08
*END

*R_NET instruction_type\[20\] 1.322e-02
*DRIVER decoder/U39:Y
*CELL NOR2X1
*C2_R1_C1 6.610e-03 5.667e-06 6.610e-03 
*LOADS
*RC U203:C 7.491e-08
*END

*R_NET instruction_type\[19\] 1.317e-02
*DRIVER decoder/U24:Y
*CELL NOR2X1
*C2_R1_C1 6.587e-03 5.667e-06 6.587e-03 
*LOADS
*RC U203:A 7.465e-08
*END

*R_NET instruction_type\[18\] 3.691e-02
*DRIVER decoder/U36:Y
*CELL NOR2X1
*C2_R1_C1 1.846e-02 1.700e-05 1.846e-02 
*LOADS
*RC decoder/U12:B 6.799e-08
*RC U206:C 7.491e-08
*RC U215:B 6.626e-08
*END

*R_NET instruction_type\[17\] 1.155e-02
*DRIVER decoder/U44:Y
*CELL CLKBUFX3
*C2_R1_C1 5.775e-03 5.667e-06 5.775e-03 
*LOADS
*RC U202:AN 6.545e-08
*END

*R_NET instruction_type\[16\] 2.681e-02
*DRIVER decoder/U18:Y
*CELL NOR2X1
*C2_R1_C1 1.341e-02 1.133e-05 1.341e-02 
*LOADS
*RC U206:A 7.465e-08
*RC U216:B 7.728e-08
*END

*R_NET instruction_type\[15\] 1.317e-02
*DRIVER decoder/U15:Y
*CELL NOR2X1
*C2_R1_C1 6.587e-03 5.667e-06 6.587e-03 
*LOADS
*RC U201:A 7.465e-08
*END

*R_NET instruction_type\[14\] 2.458e-02
*DRIVER decoder/U31:Y
*CELL NOR3X1
*C2_R1_C1 1.229e-02 1.133e-05 1.229e-02 
*LOADS
*RC U213:A 7.196e-08
*RC U222:A1 6.731e-08
*END

*R_NET instruction_type\[13\] 2.532e-02
*DRIVER decoder/U6:Y
*CELL NOR2X1
*C2_R1_C1 1.266e-02 1.133e-05 1.266e-02 
*LOADS
*RC U201:B 7.506e-08
*RC U222:A0 6.843e-08
*END

*R_NET instruction_type\[12\] 2.510e-02
*DRIVER decoder/U20:Y
*CELL NOR2X1
*C2_R1_C1 1.255e-02 1.133e-05 1.255e-02 
*LOADS
*RC U201:C 7.491e-08
*RC U210:A1 6.731e-08
*END

*R_NET instruction_type\[11\] 1.270e-02
*DRIVER decoder/U25:Y
*CELL NOR3X1
*C2_R1_C1 6.349e-03 5.667e-06 6.349e-03 
*LOADS
*RC U212:A 7.196e-08
*END

*R_NET instruction_type\[10\] 3.897e-02
*DRIVER decoder/U5:Y
*CELL NOR3X1
*C2_R1_C1 1.948e-02 1.700e-05 1.948e-02 
*LOADS
*RC U207:B 7.732e-08
*RC U210:A0 6.843e-08
*RC U217:B 7.506e-08
*END

*R_NET instruction_type\[9\] 4.008e-02
*DRIVER decoder/U7:Y
*CELL NOR3X1
*C2_R1_C1 2.004e-02 1.700e-05 2.004e-02 
*LOADS
*RC U190:B1 7.468e-08
*RC U206:B 7.506e-08
*RC U216:C 7.736e-08
*END

*R_NET instruction_type\[8\] 1.365e-02
*DRIVER decoder/U35:Y
*CELL NOR3X1
*C2_R1_C1 6.826e-03 5.667e-06 6.826e-03 
*LOADS
*RC U204:C 7.736e-08
*END

*R_NET instruction_type\[7\] 2.463e-02
*DRIVER decoder/U13:Y
*CELL NOR3X1
*C2_R1_C1 1.232e-02 1.133e-05 1.232e-02 
*LOADS
*RC U199:A1N 6.331e-08
*RC U204:D 7.626e-08
*END

*R_NET instruction_type\[6\] 2.634e-02
*DRIVER decoder/U9:Y
*CELL NOR3X1
*C2_R1_C1 1.317e-02 1.133e-05 1.317e-02 
*LOADS
*RC U189:A 7.196e-08
*RC U204:B 7.728e-08
*END

*R_NET instruction_type\[5\] 1.317e-02
*DRIVER decoder/U14:Y
*CELL NOR2X1
*C2_R1_C1 6.587e-03 5.667e-06 6.587e-03 
*LOADS
*RC U200:A 7.465e-08
*END

*R_NET instruction_type\[4\] 2.472e-02
*DRIVER decoder/U32:Y
*CELL NOR3X1
*C2_R1_C1 1.236e-02 1.133e-05 1.236e-02 
*LOADS
*RC U219:B 7.278e-08
*RC U221:A1 6.731e-08
*END

*R_NET instruction_type\[3\] 2.477e-02
*DRIVER decoder/U33:Y
*CELL NOR3X1
*C2_R1_C1 1.238e-02 1.133e-05 1.238e-02 
*LOADS
*RC U209:A1 6.731e-08
*RC U219:A 7.302e-08
*END

*R_NET instruction_type\[2\] 2.618e-02
*DRIVER decoder/U16:Y
*CELL NOR3X1
*C2_R1_C1 1.309e-02 1.133e-05 1.309e-02 
*LOADS
*RC U190:A1 7.613e-08
*RC U219:C 7.221e-08
*END

*R_NET instruction_type\[1\] 2.532e-02
*DRIVER decoder/U21:Y
*CELL NOR2X1
*C2_R1_C1 1.266e-02 1.133e-05 1.266e-02 
*LOADS
*RC U200:B 7.506e-08
*RC U221:A0 6.843e-08
*END

*R_NET instruction_type\[0\] 2.530e-02
*DRIVER decoder/U19:Y
*CELL NOR2X1
*C2_R1_C1 1.265e-02 1.133e-05 1.265e-02 
*LOADS
*RC U200:C 7.491e-08
*RC U209:A0 6.843e-08
*END

*R_NET instruction_format\[4\] 6.112e-02
*DRIVER decoder/U17:Y
*CELL CLKINVX1
*C2_R1_C1 3.056e-02 2.833e-05 3.056e-02 
*LOADS
*RC U190:A0 7.601e-08
*RC U195:A 7.196e-08
*RC U199:A0N 6.467e-08
*RC U209:B0 6.686e-08
*RC U221:B0 6.686e-08
*END

*R_NET instruction_format\[3\] 9.713e-02
*DRIVER decoder/U11:Y
*CELL INVX3
*C2_R1_C1 4.857e-02 4.533e-05 4.857e-02 
*LOADS
*RC U190:B0 7.546e-08
*RC U191:A 7.196e-08
*RC U193:A 7.419e-08
*RC U210:B0 6.686e-08
*RC U222:B0 6.686e-08
*RC U223:A1 6.448e-08
*RC U246:A1 6.490e-08
*RC U247:A1 6.575e-08
*END

*R_NET mem_addr_next\[31\] 1.189e-02
*DRIVER add_46/U1:Y
*CELL XOR2X2
*C2_R1_C1 5.945e-03 5.667e-06 5.945e-03 
*LOADS
*RC mem_addr_I_reg_31_:D 6.738e-08
*END

*R_NET mem_addr_next\[30\] 1.132e-02
*DRIVER add_46/U1_1_28:S
*CELL ADDHX2
*C2_R1_C1 5.659e-03 5.667e-06 5.659e-03 
*LOADS
*RC mem_addr_I_reg_30_:D 6.413e-08
*END

*R_NET mem_addr_next\[29\] 1.132e-02
*DRIVER add_46/U1_1_27:S
*CELL ADDHX2
*C2_R1_C1 5.659e-03 5.667e-06 5.659e-03 
*LOADS
*RC mem_addr_I_reg_29_:D 6.413e-08
*END

*R_NET mem_addr_next\[28\] 1.132e-02
*DRIVER add_46/U1_1_26:S
*CELL CMPR22X2
*C2_R1_C1 5.659e-03 5.667e-06 5.659e-03 
*LOADS
*RC mem_addr_I_reg_28_:D 6.413e-08
*END

*R_NET mem_addr_next\[27\] 1.132e-02
*DRIVER add_46/U1_1_25:S
*CELL CMPR22X2
*C2_R1_C1 5.659e-03 5.667e-06 5.659e-03 
*LOADS
*RC mem_addr_I_reg_27_:D 6.413e-08
*END

*R_NET mem_addr_next\[26\] 1.132e-02
*DRIVER add_46/U1_1_24:S
*CELL ADDHX1
*C2_R1_C1 5.659e-03 5.667e-06 5.659e-03 
*LOADS
*RC mem_addr_I_reg_26_:D 6.413e-08
*END

*R_NET mem_addr_next\[25\] 1.132e-02
*DRIVER add_46/U1_1_23:S
*CELL ADDHXL
*C2_R1_C1 5.659e-03 5.667e-06 5.659e-03 
*LOADS
*RC mem_addr_I_reg_25_:D 6.413e-08
*END

*R_NET mem_addr_next\[24\] 1.132e-02
*DRIVER add_46/U1_1_22:S
*CELL ADDHXL
*C2_R1_C1 5.659e-03 5.667e-06 5.659e-03 
*LOADS
*RC mem_addr_I_reg_24_:D 6.413e-08
*END

*R_NET mem_addr_next\[23\] 1.132e-02
*DRIVER add_46/U1_1_21:S
*CELL ADDHXL
*C2_R1_C1 5.659e-03 5.667e-06 5.659e-03 
*LOADS
*RC mem_addr_I_reg_23_:D 6.413e-08
*END

*R_NET mem_addr_next\[22\] 1.132e-02
*DRIVER add_46/U1_1_20:S
*CELL ADDHXL
*C2_R1_C1 5.659e-03 5.667e-06 5.659e-03 
*LOADS
*RC mem_addr_I_reg_22_:D 6.413e-08
*END

*R_NET mem_addr_next\[21\] 1.132e-02
*DRIVER add_46/U1_1_19:S
*CELL ADDHXL
*C2_R1_C1 5.659e-03 5.667e-06 5.659e-03 
*LOADS
*RC mem_addr_I_reg_21_:D 6.413e-08
*END

*R_NET mem_addr_next\[20\] 1.132e-02
*DRIVER add_46/U1_1_18:S
*CELL ADDHXL
*C2_R1_C1 5.659e-03 5.667e-06 5.659e-03 
*LOADS
*RC mem_addr_I_reg_20_:D 6.413e-08
*END

*R_NET mem_addr_next\[19\] 1.132e-02
*DRIVER add_46/U1_1_17:S
*CELL ADDHXL
*C2_R1_C1 5.659e-03 5.667e-06 5.659e-03 
*LOADS
*RC mem_addr_I_reg_19_:D 6.413e-08
*END

*R_NET mem_addr_next\[18\] 1.132e-02
*DRIVER add_46/U1_1_16:S
*CELL ADDHXL
*C2_R1_C1 5.659e-03 5.667e-06 5.659e-03 
*LOADS
*RC mem_addr_I_reg_18_:D 6.413e-08
*END

*R_NET mem_addr_next\[17\] 1.132e-02
*DRIVER add_46/U1_1_15:S
*CELL ADDHXL
*C2_R1_C1 5.659e-03 5.667e-06 5.659e-03 
*LOADS
*RC mem_addr_I_reg_17_:D 6.413e-08
*END

*R_NET mem_addr_next\[16\] 1.132e-02
*DRIVER add_46/U1_1_14:S
*CELL ADDHXL
*C2_R1_C1 5.659e-03 5.667e-06 5.659e-03 
*LOADS
*RC mem_addr_I_reg_16_:D 6.413e-08
*END

*R_NET mem_addr_next\[15\] 1.132e-02
*DRIVER add_46/U1_1_13:S
*CELL ADDHX2
*C2_R1_C1 5.659e-03 5.667e-06 5.659e-03 
*LOADS
*RC mem_addr_I_reg_15_:D 6.413e-08
*END

*R_NET mem_addr_next\[14\] 1.132e-02
*DRIVER add_46/U1_1_12:S
*CELL ADDHX4
*C2_R1_C1 5.659e-03 5.667e-06 5.659e-03 
*LOADS
*RC mem_addr_I_reg_14_:D 6.413e-08
*END

*R_NET mem_addr_next\[13\] 1.132e-02
*DRIVER add_46/U1_1_11:S
*CELL ADDHX2
*C2_R1_C1 5.659e-03 5.667e-06 5.659e-03 
*LOADS
*RC mem_addr_I_reg_13_:D 6.413e-08
*END

*R_NET mem_addr_next\[12\] 1.132e-02
*DRIVER add_46/U1_1_10:S
*CELL ADDHX4
*C2_R1_C1 5.659e-03 5.667e-06 5.659e-03 
*LOADS
*RC mem_addr_I_reg_12_:D 6.413e-08
*END

*R_NET mem_addr_next\[11\] 1.132e-02
*DRIVER add_46/U1_1_9:S
*CELL ADDHX2
*C2_R1_C1 5.659e-03 5.667e-06 5.659e-03 
*LOADS
*RC mem_addr_I_reg_11_:D 6.413e-08
*END

*R_NET mem_addr_next\[10\] 1.132e-02
*DRIVER add_46/U1_1_8:S
*CELL ADDHX4
*C2_R1_C1 5.659e-03 5.667e-06 5.659e-03 
*LOADS
*RC mem_addr_I_reg_10_:D 6.413e-08
*END

*R_NET mem_addr_next\[9\] 1.132e-02
*DRIVER add_46/U1_1_7:S
*CELL ADDHX2
*C2_R1_C1 5.659e-03 5.667e-06 5.659e-03 
*LOADS
*RC mem_addr_I_reg_9_:D 6.413e-08
*END

*R_NET mem_addr_next\[8\] 1.132e-02
*DRIVER add_46/U1_1_6:S
*CELL ADDHX4
*C2_R1_C1 5.659e-03 5.667e-06 5.659e-03 
*LOADS
*RC mem_addr_I_reg_8_:D 6.413e-08
*END

*R_NET mem_addr_next\[7\] 1.132e-02
*DRIVER add_46/U1_1_5:S
*CELL ADDHX2
*C2_R1_C1 5.659e-03 5.667e-06 5.659e-03 
*LOADS
*RC mem_addr_I_reg_7_:D 6.413e-08
*END

*R_NET mem_addr_next\[6\] 1.132e-02
*DRIVER add_46/U1_1_4:S
*CELL ADDHX4
*C2_R1_C1 5.659e-03 5.667e-06 5.659e-03 
*LOADS
*RC mem_addr_I_reg_6_:D 6.413e-08
*END

*R_NET mem_addr_next\[5\] 1.132e-02
*DRIVER add_46/U1_1_3:S
*CELL ADDHX2
*C2_R1_C1 5.659e-03 5.667e-06 5.659e-03 
*LOADS
*RC mem_addr_I_reg_5_:D 6.413e-08
*END

*R_NET mem_addr_next\[4\] 1.189e-02
*DRIVER add_46/U1_1_2:S
*CELL ADDHX2
*C2_R1_C1 5.945e-03 5.667e-06 5.945e-03 
*LOADS
*RC mem_addr_I_reg_4_:D 6.738e-08
*END

*R_NET mem_addr_next\[3\] 1.189e-02
*DRIVER add_46/U1_1_1:S
*CELL ADDHX1
*C2_R1_C1 5.945e-03 5.667e-06 5.945e-03 
*LOADS
*RC mem_addr_I_reg_3_:D 6.738e-08
*END

*R_NET mem_addr_next\[2\] 1.308e-02
*DRIVER add_46/U2:Y
*CELL INVXL
*C2_R1_C1 6.541e-03 5.667e-06 6.541e-03 
*LOADS
*RC mem_addr_I_reg_2_:D 7.413e-08
*END

*R_NET immediate_next\[31\] 1.028e-01
*DRIVER U66:Y
*CELL OA21X2
*C2_R1_C1 5.138e-02 5.100e-05 5.138e-02 
*LOADS
*RC U230:B0 6.556e-08
*RC immediate_reg_24_:D 6.459e-08
*RC immediate_reg_25_:D 6.459e-08
*RC immediate_reg_26_:D 6.459e-08
*RC immediate_reg_27_:D 6.459e-08
*RC immediate_reg_28_:D 6.459e-08
*RC immediate_reg_29_:D 6.459e-08
*RC immediate_reg_30_:D 6.459e-08
*RC immediate_reg_31_:D 6.459e-08
*END

*R_NET immediate_next\[23\] 4.560e-02
*DRIVER U230:Y
*CELL AO21X1
*C2_R1_C1 2.280e-02 2.267e-05 2.280e-02 
*LOADS
*RC immediate_reg_20_:D 6.459e-08
*RC immediate_reg_21_:D 6.459e-08
*RC immediate_reg_22_:D 6.459e-08
*RC immediate_reg_23_:D 6.459e-08
*END

*R_NET immediate_next\[19\] 1.140e-02
*DRIVER U237:Y
*CELL OAI2BB1X1
*C2_R1_C1 5.700e-03 5.667e-06 5.700e-03 
*LOADS
*RC immediate_reg_19_:D 6.459e-08
*END

*R_NET immediate_next\[18\] 1.140e-02
*DRIVER U236:Y
*CELL OAI2BB1X1
*C2_R1_C1 5.700e-03 5.667e-06 5.700e-03 
*LOADS
*RC immediate_reg_18_:D 6.459e-08
*END

*R_NET immediate_next\[17\] 1.140e-02
*DRIVER U235:Y
*CELL OAI2BB1X1
*C2_R1_C1 5.700e-03 5.667e-06 5.700e-03 
*LOADS
*RC immediate_reg_17_:D 6.459e-08
*END

*R_NET immediate_next\[16\] 1.140e-02
*DRIVER U234:Y
*CELL OAI2BB1X1
*C2_R1_C1 5.700e-03 5.667e-06 5.700e-03 
*LOADS
*RC immediate_reg_16_:D 6.459e-08
*END

*R_NET immediate_next\[15\] 1.140e-02
*DRIVER U233:Y
*CELL OAI2BB1X1
*C2_R1_C1 5.700e-03 5.667e-06 5.700e-03 
*LOADS
*RC immediate_reg_15_:D 6.459e-08
*END

*R_NET immediate_next\[14\] 1.140e-02
*DRIVER U214:Y
*CELL OAI2BB1X1
*C2_R1_C1 5.700e-03 5.667e-06 5.700e-03 
*LOADS
*RC immediate_reg_14_:D 6.459e-08
*END

*R_NET immediate_next\[13\] 1.140e-02
*DRIVER U232:Y
*CELL OAI2BB1X1
*C2_R1_C1 5.700e-03 5.667e-06 5.700e-03 
*LOADS
*RC immediate_reg_13_:D 6.459e-08
*END

*R_NET immediate_next\[12\] 1.140e-02
*DRIVER U231:Y
*CELL OAI2BB1X1
*C2_R1_C1 5.700e-03 5.667e-06 5.700e-03 
*LOADS
*RC immediate_reg_12_:D 6.459e-08
*END

*R_NET immediate_next\[10\] 1.140e-02
*DRIVER U243:Y
*CELL NOR2BX1
*C2_R1_C1 5.700e-03 5.667e-06 5.700e-03 
*LOADS
*RC immediate_reg_10_:D 6.459e-08
*END

*R_NET immediate_next\[9\] 1.140e-02
*DRIVER U242:Y
*CELL NOR2BX1
*C2_R1_C1 5.700e-03 5.667e-06 5.700e-03 
*LOADS
*RC immediate_reg_9_:D 6.459e-08
*END

*R_NET immediate_next\[8\] 1.140e-02
*DRIVER U241:Y
*CELL NOR2BX1
*C2_R1_C1 5.700e-03 5.667e-06 5.700e-03 
*LOADS
*RC immediate_reg_8_:D 6.459e-08
*END

*R_NET immediate_next\[7\] 1.140e-02
*DRIVER U240:Y
*CELL NOR2BX1
*C2_R1_C1 5.700e-03 5.667e-06 5.700e-03 
*LOADS
*RC immediate_reg_7_:D 6.459e-08
*END

*R_NET immediate_next\[6\] 1.140e-02
*DRIVER U239:Y
*CELL NOR2BX1
*C2_R1_C1 5.700e-03 5.667e-06 5.700e-03 
*LOADS
*RC immediate_reg_6_:D 6.459e-08
*END

*R_NET immediate_next\[5\] 1.140e-02
*DRIVER U238:Y
*CELL NOR2BX1
*C2_R1_C1 5.700e-03 5.667e-06 5.700e-03 
*LOADS
*RC immediate_reg_5_:D 6.459e-08
*END

*R_NET immediate_next\[4\] 1.140e-02
*DRIVER U252:Y
*CELL AO22X1
*C2_R1_C1 5.700e-03 5.667e-06 5.700e-03 
*LOADS
*RC immediate_reg_4_:D 6.459e-08
*END

*R_NET immediate_next\[3\] 1.140e-02
*DRIVER U251:Y
*CELL AO22X1
*C2_R1_C1 5.700e-03 5.667e-06 5.700e-03 
*LOADS
*RC immediate_reg_3_:D 6.459e-08
*END

*R_NET immediate_next\[2\] 1.140e-02
*DRIVER U250:Y
*CELL AO22X1
*C2_R1_C1 5.700e-03 5.667e-06 5.700e-03 
*LOADS
*RC immediate_reg_2_:D 6.459e-08
*END

*R_NET immediate_next\[1\] 1.140e-02
*DRIVER U249:Y
*CELL AO22X1
*C2_R1_C1 5.700e-03 5.667e-06 5.700e-03 
*LOADS
*RC immediate_reg_1_:D 6.459e-08
*END

*R_NET immediate_next\[0\] 1.140e-02
*DRIVER U247:Y
*CELL AO22X1
*C2_R1_C1 5.700e-03 5.667e-06 5.700e-03 
*LOADS
*RC immediate_reg_0_:D 6.459e-08
*END

*R_NET ctrl_sig_next\[11\] 7.998e-02
*DRIVER decoder/U43:Y
*CELL CLKINVX1
*C2_R1_C1 3.999e-02 3.967e-05 3.999e-02 
*LOADS
*RC U193:B 7.206e-08
*RC U233:A1N 6.331e-08
*RC U234:A1N 6.331e-08
*RC U235:A1N 6.331e-08
*RC U236:A1N 6.331e-08
*RC U237:A1N 6.331e-08
*RC ctrl_signal_reg_11_:D 6.459e-08
*END

*R_NET ctrl_sig_next\[10\] 1.140e-02
*DRIVER U198:Y
*CELL NOR2X1
*C2_R1_C1 5.700e-03 5.667e-06 5.700e-03 
*LOADS
*RC ctrl_signal_reg_10_:D 6.459e-08
*END

*R_NET ctrl_sig_next\[9\] 6.065e-02
*DRIVER decoder/U4:Y
*CELL NOR2BX1
*C2_R1_C1 3.033e-02 2.833e-05 3.033e-02 
*LOADS
*RC decoder/U22:A 7.196e-08
*RC U66:A0 7.157e-08
*RC ctrl_signal_reg_9_:D 6.459e-08